%%%%%%%%%%%%%%%%%%%%%%%%%%%%%%%%%%%%%%%%%%%%%%%%%%%%%%%%%%%%%%%%%%%%%%%%%%%%%%%%
%                                                                              %
% SU2 konfiguracija                                                            %
% Namen: Tranzientni nestisljiv tok okoli profila			                         %
% Datum: 30.6.2025                                                             %
% Verzija 8.0.1 	                                                             %
%                                                                              %
%%%%%%%%%%%%%%%%%%%%%%%%%%%%%%%%%%%%%%%%%%%%%%%%%%%%%%%%%%%%%%%%%%%%%%%%%%%%%%%%

% SOLVER
%
SOLVER= INC_RANS
KIND_TURB_MODEL= SA
REF_DIMENSIONALIZATION= DIMENSIONAL
MATH_PROBLEM= DIRECT

% RESTART
%
RESTART_SOL= NO
RESTART_ITER= 9999

% INCOMPRESSIBLE FREE-STREAM
FREESTREAM_TEMPERATURE= 293.0
FREESTREAM_PRESSURE= 101325.0
REYNOLDS_NUMBER= 90000
REYNOLDS_LENGTH= 0.3

INC_DENSITY_INIT= 1.0
INC_VELOCITY_INIT= ( 7.0, 0.0, 0.0 )

VISCOSITY_MODEL= CONSTANT_VISCOSITY
MU_CONSTANT= 1.853E-5

% REFERENCE VALUES (popravi)
REF_ORIGIN_MOMENT_X= 0.25
REF_ORIGIN_MOMENT_Y= 0.00
REF_ORIGIN_MOMENT_Z= 0.00
REF_LENGTH= 1.0
REF_AREA= 1.0

% BOUNDARY CONDITIONS
%
MARKER_HEATFLUX= ( airfoil, 0.0 )
MARKER_FAR= ( farfield )
MARKER_PLOTTING= ( airfoil )
MARKER_MONITORING= ( airfoil )

% DISCRETIZATION
%
TIME_DOMAIN= YES
TIME_MARCHING= DUAL_TIME_STEPPING-2ND_ORDER
TIME_STEP= 5e-3
%
NUM_METHOD_GRAD= GREEN_GAUSS
CONV_NUM_METHOD_FLOW= FDS
MUSCL_FLOW= YES
CONV_NUM_METHOD_TURB= SCALAR_UPWIND
MUSCL_TURB= NO

% SOLUTION METHODS
%
TIME_DISCRE_FLOW= EULER_IMPLICIT
TIME_DISCRE_TURB= EULER_IMPLICIT
CFL_NUMBER= 200
CFL_ADAPT= YES
LINEAR_SOLVER= FGMRES
LINEAR_SOLVER_PREC= LU_SGS
LINEAR_SOLVER_ERROR= 1E-10
LINEAR_SOLVER_ITER= 10

% INNER CONVERGENCE
%
INNER_ITER= 31
CONV_FIELD= RMS_PRESSURE
CONV_RESIDUAL_MINVAL= -5.5
CONV_STARTITER= 7

% TIME CONVERGENCE
%
TIME_ITER= 19999
MAX_TIME= 6
%
% Starting iteration and type for windowed-time-averaging
WINDOW_CAUCHY_CRIT= YES
WINDOW_START_ITER= 200
WINDOW_FUNCTION= HANN_SQUARE
%
% Monitored fields
CUSTOM_OUTPUTS= 'velocity : Macro{sqrt(pow(VELOCITY_X, 2) + pow(VELOCITY_Y, 2) )};\
		probe1 : Probe{$velocity}[0.15, 0.0]'
CONV_WINDOW_FIELD= ( TAVG_DRAG, TAVG_LIFT )
% Time Convergence monitoring starts at iteration WINDOW_START_ITER + CONV_WINDOW_STARTITER
CONV_WINDOW_STARTITER= 50
% Epsilon to control the series convergence
CONV_WINDOW_CAUCHY_EPS= 1E-17
% Number of elements to apply the criteria
CONV_WINDOW_CAUCHY_ELEMS= 20

% INPUT/OUTPUT
%
MESH_FILENAME= /home/zanb/Profiljak/naca/mreze/naca-2_000aoa.su2
MESH_FORMAT= SU2
SOLUTION_FILENAME= /home/zanb/Profiljak/naca/dats/restart_naca-2_000aoa.dat
TABULAR_FORMAT= CSV
CONV_FILENAME= /home/zanb/Profiljak/naca/rezultati/history_naca-2_000aoa
RESTART_FILENAME= /home/zanb/Profiljak/naca/dats/restart_naca-2_000aoa.dat
VOLUME_FILENAME= /home/zanb/Profiljak/naca/vtus/naca-2_000aoa
SURFACE_FILENAME= /home/zanb/Profiljak/naca/dats/surface_naca-2_000aoa
OUTPUT_FILES= ( RESTART, PARAVIEW )
OUTPUT_WRT_FREQ= (5, 5)
SCREEN_WRT_FREQ_INNER= 100
SCREEN_OUTPUT= (TIME_ITER, CUR_TIME, INNER_ITER, RMS_RES)
%SCREEN_OUTPUT= ( TIME_ITER, INNER_ITER, RMS_DENSITY, REL_RMS_DENSITY, DRAG, LIFT)
VOLUME_OUTPUT= (SOLUTION, PRIMITIVE)
HISTORY_OUTPUT= ( TIME_ITER, INNER_ITER, CUR_TIME, REL_RMS_RES, RMS_RES, LIST, DRAG, LIFT, AERO_COEFF, TAVG_AERO_COEFF, CAUCHY, SURFACE_STATIC_PRESSURE, RMS_DENSITY, RMS_VELOCITY-X, RMS_VELOCITY-Y, CUSTOM_OUTPUT, RMS_PRESSURE, RMS_ENERGY)
